sectionalized/no_load/80pc/TNB_DUMA_VLN.Txt

SYMMETRICAL COMPONENT VOLTAGES BY BUS (for 3-phase buses)

Bus               Mag:   V1 (kV)    p.u.     V2 (kV)   %V2/V1    V0 (kV)    %V0/V1

ppu_duma_33kv        19.05     0.9999  2.565E-008  1.346E-007 1.239E-009 6.506E-009
ppu_duma_11kv_a       6.32     0.9951  9.273E-009  1.467E-007 1.269E-010 2.007E-009
ppu_duma_11kv_b      6.241     0.9827  3.766E-008  6.034E-007 3.972E-007 6.365E-006
rpplngi2             6.371      1.003  3.769E-008  5.916E-007 4.067E-007 6.384E-006
pdtjlnmasjid         6.468      1.019  3.772E-008  5.832E-007 4.138E-007 6.398E-006
bella                6.534      1.029  3.775E-008  5.777E-007 4.186E-007 6.407E-006
pstpdgn              6.567      1.034  3.776E-008  5.75E-007 4.21E-007 6.411E-006
atria_1              6.418      1.011  3.767E-008  5.87E-007 4.099E-007 6.386E-006
hawker               6.448      1.015  3.758E-008  5.827E-007 4.151E-007 6.437E-006
duma7                6.289     0.9902  4.297E-008  6.834E-007 4.08E-007 6.488E-006
haus                 6.384      1.005  5.144E-008  8.058E-007 2.079E-006 3.257E-005
duma6                6.644      1.046  9.048E-008  1.362E-006 9.066E-006 0.0001365
duma13               6.878      1.083  1.368E-007  1.989E-006 1.658E-005 0.0002411
ssu_duma5_im2        6.909      1.088  1.451E-007  2.099E-006 1.668E-005 0.0002414
pdtlitrak            6.548      1.031  3.746E-008  5.721E-007 4.289E-007 6.55E-006
duma12               6.673      1.051  3.735E-008  5.597E-007 4.423E-007 6.628E-006
tmngh4               6.791      1.069  3.722E-008  5.48E-007 5.852E-007 8.616E-006
ssu_tmegah3_ir1      6.838      1.077  3.716E-008  5.433E-007 6.445E-007 9.425E-006
tmngh2               6.859       1.08  3.713E-008  5.413E-007 6.708E-007 9.779E-006
ssu_uptwres_im2      6.291     0.9906  3.762E-008  5.98E-007 4.412E-007 7.013E-006
maybank              6.359      1.001  3.759E-008  5.912E-007 4.463E-007 7.019E-006
duma8                6.371      1.003  3.759E-008   5.9E-007 4.566E-007 7.167E-006
duma9                6.463      1.018  3.773E-008  5.838E-007 4.137E-007 6.401E-006
duma1                6.554      1.032  3.777E-008  5.763E-007 4.204E-007 6.415E-006
elite                6.587      1.037  3.778E-008  5.736E-007 4.229E-007 6.42E-006
pamdra               6.333     0.9972  9.291E-009  1.467E-007 1.273E-010 2.011E-009
duma4                6.378      1.004  9.352E-009  1.466E-007 1.708E-010 2.677E-009
plsdra               6.478       1.02  9.489E-009  1.465E-007 3.291E-010 5.081E-009
prmte                6.439      1.014  9.432E-009  1.465E-007 2.854E-010 4.433E-009
prmta                6.459      1.017  9.459E-009  1.464E-007 2.888E-010 4.472E-009
pmontb               6.475      1.019  9.48E-009  1.464E-007 3.157E-010 4.876E-009
plngi_b              6.387      1.006  9.361E-009  1.466E-007 1.293E-010 2.024E-009
plngi_d              6.421      1.011  9.405E-009  1.465E-007 1.308E-010 2.037E-009
sprk9                6.607       1.04  9.666E-009  1.463E-007 1.46E-010 2.21E-009
bomba                6.623      1.043  9.689E-009  1.463E-007 1.595E-010 2.408E-009
sprk8                6.664      1.049  9.747E-009  1.463E-007 2.07E-010 3.106E-009
ssu_dsarcntr_ir1     6.354          1  9.317E-009  1.466E-007 1.279E-010 2.013E-009
duma10               6.478       1.02  9.483E-009  1.464E-007 1.343E-010 2.073E-009
balaipolis            6.48       1.02  9.486E-009  1.464E-007 1.344E-010 2.074E-009
ssu_uptwres_ir1      6.495      1.023  9.512E-009  1.465E-007 3.321E-010 5.113E-009
ppu_duma_vcb1            0          0          0          0         0         0
